tonsky/FiraCode
styleguidist/snapguidist
zeit/pkg
styled-components/styled-components
styled-components/polished
react-community/create-react-native-app
facebook/metro-bundler
prettier/prettier
zeit/hyper
skovhus/jest-codemods
facebook/jest
yarnpkg/yarn
facebookincubator/create-react-app
jed/lave
facebook/draft-js
necolas/react-native-web
reactjs/react-codemod
jhgg/js-transforms
facebook/relay
babel/babel
webtorrent/webtorrent
ReactTraining/react-router
facebook/react-native
facebook/jscodeshift
ericclemmons/react-resolver
facebook/flow
facebook/immutable-js
trevorlinton/webkit.js
yungsters/phabricator-scripts
petehunt/react-touch
peter-murray/node-hue-api
rowanj/gitx
scala-js/scala-js
facebook/react
raph-amiard/sublime-typescript
pac4j/play-pac4j
playframework/play-slick
phoboslab/JavaScriptCore-iOS
boxeehacks/boxeehack
matthewrobb/six
cpojer/package_control_channel
cpojer/handlebars.js
plucked/html5-audio-editor
cpojer/modulr-node
cpojer/mootools-router
scalatron/scalatron
scottjehl/Device-Bugs
kamicane/wrapup
messageformat/messageformat.js
joelambert/ScrollFix
playframework/playframework
tobie/modulr-node
wbond/package_control_channel
cpojer/stylus
cpojer/mootilities
niklasvh/html2canvas
cpojer/javelin
emberjs/ember.js
necolas/normalize.css
tj/nib
moobilejs/moobile-core
cpojer/PowerTools
cpojer/js-hqx
stylus/stylus
cpojer/mootools-form-placeholder
cpojer/mootools-form-autogrow
cpojer/mootools-custom-event
wycats/handlebars.js
cpojer/event-stack
cpojer/packager-web
mootools/mootools-runner
cpojer/mootools-mobile
cpojer/mootools-dynamic-matcher
cpojer/mootools-history
cpojer/jasmine-node
cpojer/jasmine-jstd-adapter
cpojer/mootools-class-extras
cpojer/slick
cpojer/php-cache
cpojer/php-type
arian/mootools-core
cpojer/packager
Automattic/mongoose
mrdoob/three.js
socketio/socket.io
socketio/socket.io-client
cpojer/mootools-interface
kamicane/mootools-core
kamicane/packager
github/hub
mootools/mootools-core-specs
cpojer/scroll-loader
cpojer/mootools-core
brotherbard/gitx
mootools/slick
cpojer/mootools-tree
phacility/javelin
nodejs/node-v0.x-archive
cpojer/mootools-filemanager
cpojer/mootools-more
